Version 4
SHEET 1 880 680
WIRE 112 96 80 96
WIRE 480 96 112 96
WIRE 112 144 112 96
WIRE 480 144 480 96
WIRE 112 272 112 224
WIRE 160 272 112 272
WIRE 256 272 240 272
WIRE 336 272 320 272
WIRE 480 272 480 224
WIRE 480 272 416 272
WIRE 112 320 112 272
WIRE 480 320 480 272
WIRE 256 336 256 272
WIRE 384 336 256 336
WIRE 320 368 320 272
WIRE 320 368 208 368
WIRE 208 400 208 368
WIRE 208 400 160 400
WIRE 384 400 384 336
WIRE 432 400 384 400
WIRE 112 448 112 416
WIRE 480 448 480 416
WIRE 480 448 112 448
WIRE 208 528 208 400
WIRE 384 528 384 400
FLAG 0 96 0
FLAG 480 448 0
FLAG 208 608 0
FLAG 384 608 0
SYMBOL voltage 96 96 R90
WINDOW 0 -32 56 VBottom 2
WINDOW 3 32 56 VTop 2
WINDOW 123 0 0 Left 2
WINDOW 39 0 0 Left 2
SYMATTR InstName V1
SYMATTR Value 5
SYMBOL res 96 128 R0
SYMATTR InstName R1
SYMATTR Value 1k
SYMBOL res 256 256 R90
WINDOW 0 0 56 VBottom 2
WINDOW 3 32 56 VTop 2
SYMATTR InstName R2
SYMATTR Value 10k
SYMBOL res 432 256 R90
WINDOW 0 0 56 VBottom 2
WINDOW 3 32 56 VTop 2
SYMATTR InstName R3
SYMATTR Value 10k
SYMBOL res 464 128 R0
SYMATTR InstName R4
SYMATTR Value 1k
SYMBOL nmos 160 320 M0
SYMATTR InstName M1
SYMBOL nmos 432 320 R0
SYMATTR InstName M2
SYMBOL voltage 208 512 R0
WINDOW 123 0 0 Left 2
WINDOW 39 0 0 Left 2
SYMATTR InstName V2
SYMATTR Value PULSE(1 0 0 0 0 0.5)
SYMBOL voltage 384 512 R0
WINDOW 123 0 0 Left 2
WINDOW 39 0 0 Left 2
SYMATTR InstName V3
SYMATTR Value PULSE(0 1 0 0 0 0.5)
TEXT 0 616 Left 2 !.tran 0 5 0
